%chk=conformer_6_amber.chk
%nprocshared=8
%mem=32GB
# B3LYP 6-31G* OPT FREQ SCRF(PCM,Solvent=water)

Title Card Required

0 1
 C                  2.18920000    0.08610000    3.16210000
 C                  1.73780000    0.08220000    1.82880000
 C                  1.27620000    0.20220000    4.22260000
 C                 -0.10020000    0.25820000    3.94570000
 C                 -0.55090000    0.25240000    2.61630000
 C                  0.36210000    0.17290000    1.54950000
 C                 -0.12890000    0.41970000    0.12800000
 C                  0.02350000   -0.71980000   -0.89910000
 C                  1.30690000   -0.60360000   -1.69770000
 O                  2.37240000   -1.31800000   -1.27290000
 O                  1.27920000   -0.04630000   -2.79000000
 N                 -0.04380000   -2.04730000   -0.30140000
 H                  3.24310000    0.00790000    3.39590000
 H                  2.44780000    0.05240000    1.01200000
 H                  1.65240000    0.25020000    5.24120000
 H                 -0.83490000    0.32070000    4.73900000
 H                 -1.60910000    0.34130000    2.41690000
 H                 -1.18930000    0.68740000    0.16550000
 H                  0.39960000    1.29470000   -0.25910000
 H                 -0.77790000   -0.61570000   -1.63230000
 H                  2.18220000   -1.78550000   -0.45380000
 H                  0.05380000   -2.81290000   -0.95740000
 H                  0.39590000   -2.18540000    0.59700000
